LAMMPS (20 Nov 2019)
# quench glass from melted beta cristobalite SiO2
# Aur√©lien Legoupil, January 2023
# PSFC - MIT

# This version is inspired by the OSU thesis

# ---------- INITIALIZATION ----------------------------------------------------
clear
echo         	both
timer		full
New timer settings: style=full  mode=nosync  timeout=off
units		metal
dimension	3
processors	* * *
boundary	p p p

# -------- SEEDS ---------------------------------------------------------------
variable    VSeed equal 789456
variable    TSeed equal 852456
variable    swapSeed equal 123456

# ---------- GEOMETRY DEFINITION -----------------------------------------------

atom_style	 charge
#atom_modify	 map array
read_data        beta-cristobalite.data
  orthogonal box = (0 0 0) to (111 111 111)
  reading atoms ...
  81000 atoms

group    Si type 1
27000 atoms in group Si
group    O type 2
54000 atoms in group O

# ---------- POTENTIAL ---------------------------------------------------------
pair_style tersoff
pair_coeff	* * /home/aurelienlegoupil/projects/LAMMPS_studies/INTERATOMIC_POTENTIALS/2007_SiO.tersoff Si O

# ---------- SETTINGS ----------------------------------------------------------
# COMPUTES
#compute	   myRDF all rdf 2000 1 1 2 2 1 2 2 1 cutoff 4

# VARIABLES
variable	filename string SiO2-glass-thesisquench

variable	dt equal 0.001

variable	Temp1 equal 7000
variable	t1 equal 200/dt
variable	Temp2 equal 7000
variable	t2 equal 100/dt
variable        t23 equal 470/dt
variable	Temp3 equal 300
variable	t3 equal 100/dt

variable	N equal count(all)

# --------- OUTPUT SETTINGS ----------------------------------------------------
# PRINT-SCREEN

thermo		100
thermo_style	custom step time temp pe press vol lx ly lz pxx pyy pzz ke density

dump            1 all custom 1000 dump_lammpstrj id type x y z

# --------- MINIMIZATION -------------------------------------------------------
minimize        1.0e-10 1.0e-10 100000 100000
  update every 1 steps, delay 0 steps, check yes
Step Time Temp PotEng Press Volume Lx Ly Lz Pxx Pyy Pzz KinEng Density
0            0            0   -527742.37    104906.69      1367631          111          111          111    104906.69    104906.69    104906.69            0    1.9697218
Loop time of 0.811053 on 4 procs for 9 steps with 81000 atoms

Minimization stats:
  Stopping criterion = energy tolerance
  Energy initial, next-to-last, final =
  Force two-norm initial, final = 15.891 0.0273399
  Force max component initial, final = 0.0548674 9.37585e-05
  Final line search alpha, max atom move = 1 9.37585e-05
  Iterations, force evaluations = 9 18

# --------- SIMULATION STEPS ---------------------------------------------------

velocity   all create 7000 852456 mom yes

timestep 0.001

fix		1 all nvt temp 7000 7000 0.1
run		200000
Step Time Temp PotEng Press Volume Lx Ly Lz Pxx Pyy Pzz KinEng Density
9            0         7000   -527743.44    162143.82      1367631          111          111          111    162075.95       162443    161912.53    73289.597    1.9697218
Averages over the last 1001 of 2002 rows, steps 100100 to 200009:
Temp PotEng Press Volume Lx Ly Lz Pxx Pyy Pzz KinEng Density
7036.09 -425013 5344.91 1.36763e+06 111 111 111 5357.63 5335.19 5341.92 73667.5 1.96972
Loop time of 14738.2 on 4 procs for 200000 steps with 81000 atoms

unfix		1

fix		2 all npt temp 7000 7000 0.1 iso 0 0 1
run		100000
Step Time Temp PotEng Press Volume Lx Ly Lz Pxx Pyy Pzz KinEng Density
200009          200    7062.3547   -424861.88    5111.5394      1367631          111          111          111    4811.3553    5746.0453    4777.2176    73942.447    1.9697218
Averages over the last 501 of 1002 rows, steps 250100 to 300009:
Temp PotEng Press Volume Lx Ly Lz Pxx Pyy Pzz KinEng Density
7033.45 -419147 -40.3992 1.57017e+06 116.229 116.229 116.229 -150.637 7.8771 21.5619 73639.8 1.71567
Loop time of 6703.86 on 4 procs for 100000 steps with 81000 atoms

unfix		2

fix		23 all npt temp 7000 300 0.1 iso 0 0 1
run		470000
Step Time Temp PotEng Press Volume Lx Ly Lz Pxx Pyy Pzz KinEng Density
300009          300    7014.8784   -418596.53     452.0799    1560375.9    115.98711    115.98711    115.98711    1795.0279    274.51235   -713.30059    73445.373    1.7264126
Averages over the last 2351 of 4702 rows, steps 535100 to 770009:
Temp PotEng Press Volume Lx Ly Lz Pxx Pyy Pzz KinEng Density
1979.28 -509944 -6.03578 1.20886e+06 106.523 106.523 106.523 27.8766 -342.57 296.586 20722.9 2.22922
Loop time of 31663 on 4 procs for 470000 steps with 81000 atoms

unfix		23

fix		3 all npt temp 300 300 0.1 iso 0 0 1
run		100000
Step Time Temp PotEng Press Volume Lx Ly Lz Pxx Pyy Pzz KinEng Density
770009          770    302.40292   -529523.54    -643.7569    1168584.2     105.3303     105.3303     105.3303   -394.77837   -983.29692    -553.1954    3166.1412    2.3052277
Averages over the last 501 of 1002 rows, steps 820100 to 870009:
Temp PotEng Press Volume Lx Ly Lz Pxx Pyy Pzz KinEng Density
300.05 -529534 9.31745 1.16809e+06 105.315 105.315 105.315 246.964 -554.581 335.569 3141.51 2.3062
Loop time of 6387.77 on 4 procs for 100000 steps with 81000 atoms

unfix		3

# --------- MINIMIZATION -------------------------------------------------------
minimize        1.0e-10 1.0e-10 100000 100000
Step Time Temp PotEng Press Volume Lx Ly Lz Pxx Pyy Pzz KinEng Density
870009          870    300.24053   -529541.78    80.440934    1168193.9    105.31857    105.31857    105.31857    117.36832   -489.85656    613.81104    3143.5011    2.3059979
Loop time of 38.4527 on 4 procs for 273 steps with 81000 atoms

Minimization stats:
  Stopping criterion = energy tolerance
  Energy initial, next-to-last, final =
  Force two-norm initial, final = 482.048 12.5569
  Force max component initial, final = 12.7651 1.55349
  Final line search alpha, max atom move = 0.0179277 0.0278505
  Iterations, force evaluations = 273 592

# --------- fix rdf output -----------------------------------------------------
#reset_timestep	0
#run		10
#unfix		10

# ---------- OUTPUTS -----------------------------------------------------------

# WRITE FILES
write_data	final_SiO2-glass-thesisquench.data
write_restart	final_SiO2-glass-thesisquench.restart

################################################################################
# ---------- SIMULATION DONE ---------------------------------------------------
print		"All done"
All done
print		"Number of atoms = $N"
Number of atoms = 81000
